Circuit: * F:\OneDrive - rwth-aachen.de\RWTH Aachen\Seminar-- ELectro Magnet in Power Electronics\Simulation model\moodle\Task2_RealeKomponentenModelle\Draft1.asc

.OP point found by inspection.

Date: Thu Jan 07 22:39:33 2021
Total elapsed time: 0.121 seconds.

tnom = 27
temp = 27
method = modified trap
totiter = 2082
traniter = 2082
tranpoints = 1042
accept = 1042
rejected = 0
matrix size = 2
fillins = 0
solver = Normal
Matrix Compiler1: off  [0.0]/0.1/0.1
Matrix Compiler2: off  [0.1]/0.1/0.1

