Circuit: * F:\OneDrive - rwth-aachen.de\RWTH Aachen\Seminar-- ELectro Magnet in Power Electronics\Simulation model\moodle\Task1_Aufbau\EMVSem_HB_Task1_Aufbau.asc

Limiting rise time of source v3 to 5e-006
Limiting fall time of source v3 to 5e-006
Limiting rise time of source v2 to 5e-006
Limiting fall time of source v2 to 5e-006
.OP point found by inspection.

Date: Fri Jan 08 01:01:44 2021
Total elapsed time: 0.368 seconds.

tnom = 27
temp = 27
method = modified trap
totiter = 45088
traniter = 45088
tranpoints = 13662
accept = 10662
rejected = 3000
matrix size = 16
fillins = 4
solver = Normal
Matrix Compiler1: 1.01 KB object code size  0.6/0.3/[0.2]
Matrix Compiler2: 1.25 KB object code size  0.3/0.4/[0.2]

